FoamFile
{
    format      ascii;
    class       dictionary;
    location    "system";
    object      controlDict;
}

solver          incompressibleFluid;

startFrom       startTime;
startTime       0;
stopAt          endTime;
endTime         20;
deltaT          1;

writeControl    timeStep;
writeInterval   20;
purgeWrite      0;
writeFormat     ascii;
writePrecision  6;
writeCompression off;
timeFormat      general;
timePrecision   6;
runTimeModifiable true;

libs ("libOGL.so");
